test/data_tests/TVC_System_motor.raw
0,   100.00,  32, 0, 1, 60.00     / PSS(R)E 32 RAW created by rawd32  FRI, MAY 06 2022  11:39


     1,'BUS1        ', 230.0000,3,   1,   1,   1,1.04000,   0.0000
     2,'BUS2        ',  13.8000,2,   1,   1,   1,1.01000,  -0.2154
     3,'BUS3        ',  34.5000,1,   1,   1,   1,1.02628,  -4.0626
     4,'BUS4        ', 230.0000,1,   1,   1,   1,1.02371,  -2.9828
0 / END OF BUS DATA, BEGIN LOAD DATA
     3,'1 ',1,   1,   1,   500.000,   300.000,     0.000,     0.000,     0.000,     0.000,   1,1
0 / END OF LOAD DATA, BEGIN FIXED SHUNT DATA
     3,'1 ',1,     0.000,   100.000
0 / END OF FIXED SHUNT DATA, BEGIN GENERATOR DATA
     1,'1 ',   200.000,    66.357,  9999.000, -9999.000,1.04000,     0, 10000.000, 0.00000E+0, 1.00000E+0, 0.00000E+0, 0.00000E+0,1.00000,1,  100.0,  9999.000, -9999.000,   1,1.0000
     2,'1 ',   300.000,   169.229,  1000.000, -9000.000,1.01000,     0,   500.000, 0.00000E+0, 4.00000E-1, 0.00000E+0, 0.00000E+0,1.00000,1,  100.0,   500.000,     0.000,   1,1.0000
0 / END OF GENERATOR DATA, BEGIN BRANCH DATA
     1,      4,'1 ', 0.00000E+0, 5.54000E-2,   0.00000, 1000.00, 1000.00,    0.00,  0.00000,  0.00000,  0.00000,  0.00000,1,1,   1.00,   1,1.0000
     1,      4,'2 ', 0.00000E+0, 5.54000E-2,   0.00000, 1000.00, 1000.00,    0.00,  0.00000,  0.00000,  0.00000,  0.00000,1,1,   1.00,   1,1.0000
0 / END OF BRANCH DATA, BEGIN TRANSFORMER DATA
     2,     4,     0,'1 ',1,2,1, 0.00000E+0, 0.00000E+0,2,'STEPUP                                  ',1,   1,1.0000
 0.00000E+0, 8.80000E-2,   550.00
1.00000,  13.800,   0.000,   550.00,   550.00,     0.00, 0,      4, 1.10000, 0.90000, 1.10000, 0.90000,  33, 0, 0.00000, 0.00000,  0.000
1.04000, 230.000
     4,     3,     0,'1 ',1,2,1, 0.00000E+0, 0.00000E+0,2,'STEPDOWN                                ',1,   1,1.0000
 0.00000E+0, 8.00000E-2,  2000.00
0.99000, 230.000,   0.000,  2000.00,  2000.00,     0.00, 1,      3, 1.10000, 0.80000, 1.03000, 1.01000,  31, 0, 0.00000, 0.00000,  0.000
1.00000,  34.500
0 / END OF TRANSFORMER DATA, BEGIN AREA DATA
   1,     0,     0.000,    10.000,'AREA1       '
0 / END OF AREA DATA, BEGIN TWO-TERMINAL DC DATA
0 / END OF TWO-TERMINAL DC DATA, BEGIN VSC DC LINE DATA
0 / END OF VSC DC LINE DATA, BEGIN IMPEDANCE CORRECTION DATA
0 / END OF IMPEDANCE CORRECTION DATA, BEGIN MULTI-TERMINAL DC DATA
0 / END OF MULTI-TERMINAL DC DATA, BEGIN MULTI-SECTION LINE DATA
0 / END OF MULTI-SECTION LINE DATA, BEGIN ZONE DATA
0 / END OF ZONE DATA, BEGIN INTER-AREA TRANSFER DATA
0 / END OF INTER-AREA TRANSFER DATA, BEGIN OWNER DATA
0 / END OF OWNER DATA, BEGIN FACTS DEVICE DATA
0 / END OF FACTS DEVICE DATA, BEGIN SWITCHED SHUNT DATA
0 / END OF SWITCHED SHUNT DATA, BEGIN GNE DATA
0 / END OF GNE DATA
Q
